Info: SIMULATION PARAMETERS:
Info: TIMESTEP               2
Info: NUMBER OF STEPS        0
Info: STEPS PER CYCLE        10
Info: PERIODIC CELL BASIS 1  34.694 0 0
Info: PERIODIC CELL BASIS 2  0 56.935 0
Info: PERIODIC CELL BASIS 3  0 0 48.2
Info: PERIODIC CELL CENTER   6.666 70.569 -2.12
Info: WRAPPING WATERS AROUND PERIODIC BOUNDARIES ON OUTPUT.
Info: WRAPPING ALL CLUSTERS AROUND PERIODIC BOUNDARIES ON OUTPUT.
Info: FIRST LDB TIMESTEP     50
Info: LAST LDB TIMESTEP     -1
Info: HOM BACKGROUND SCALING 1
Info: PME BACKGROUND SCALING 1
Info: MIN ATOMS PER PATCH    40
Info: INITIAL TEMPERATURE    0
Info: CENTER OF MASS MOVING INITIALLY? NO
Info: DIELECTRIC             1
Info: EXCLUDE                SCALED ONE-FOUR
Info: 1-4 ELECTROSTATICS SCALED BY 1
Info: MODIFIED 1-4 VDW PARAMETERS WILL BE USED
Info: DCD FILENAME           min_alpha6_side.dcd
Info: DCD FREQUENCY          100
Info: DCD FIRST STEP         100
Info: DCD FILE WILL CONTAIN UNIT CELL DATA
Info: XST FILENAME           min_alpha6_side.xst
Info: XST FREQUENCY          100
Info: NO VELOCITY DCD OUTPUT
Info: NO FORCE DCD OUTPUT
Info: OUTPUT FILENAME        min_alpha6_side
Info: RESTART FILENAME       min_alpha6_side_res
Info: RESTART FREQUENCY      100
Info: BINARY RESTART FILES WILL BE USED
Info: SWITCHING ACTIVE
Info: SWITCHING ON           10
Info: SWITCHING OFF          12
Info: PAIRLIST DISTANCE      14
Info: PAIRLIST SHRINK RATE   0.01
Info: PAIRLIST GROW RATE     0.01
Info: PAIRLIST TRIGGER       0.3
Info: PAIRLISTS PER CYCLE    2
Info: PAIRLISTS ENABLED
Info: MARGIN                 0
Info: HYDROGEN GROUP CUTOFF  2.5
Info: PATCH DIMENSION        16.5
Info: ENERGY OUTPUT STEPS    100
Info: CROSSTERM ENERGY INCLUDED IN DIHEDRAL
Info: TIMING OUTPUT STEPS    100
Info: PRESSURE OUTPUT STEPS  100
Info: FIXED ATOMS ACTIVE
Info: PARTICLE MESH EWALD (PME) ACTIVE
Info: PME TOLERANCE               1e-006
Info: PME EWALD COEFFICIENT       0.257952
Info: PME INTERPOLATION ORDER     4
Info: PME GRID DIMENSIONS         36 60 54
Info: PME MAXIMUM GRID SPACING    1
Info: FULL ELECTROSTATIC EVALUATION FREQUENCY      2
Info: USING VERLET I (r-RESPA) MTS SCHEME.
Info: C1 SPLITTING OF LONG RANGE ELECTROSTATICS
Info: PLACING ATOMS IN PATCHES BY HYDROGEN GROUPS
Info: RIGID BONDS TO HYDROGEN : ALL
Info:         ERROR TOLERANCE : 1e-008
Info:          MAX ITERATIONS : 100
Info: RIGID WATER USING SETTLE ALGORITHM
Info: RANDOM NUMBER SEED     1522936987
Info: USE HYDROGEN BONDS?    NO
Info: COORDINATE PDB         A1A6.pdb
Info: STRUCTURE FILE         A1A6.psf
Info: PARAMETER file: CHARMM format!
Info: PARAMETERS             par_all27_prot_lipid.inp
Info: USING ARITHMETIC MEAN TO COMBINE L-J SIGMA PARAMETERS
Info: SUMMARY OF PARAMETERS:
Info: 307 BONDS
Info: 769 ANGLES
Info: 1254 DIHEDRAL
Info: 81 IMPROPER
Info: 6 CROSSTERM
Info: 190 VDW
Info: 0 VDW_PAIRS
Info: 0 NBTHOLE_PAIRS
Info:
Info: STRUCTURE SUMMARY:
Info: 3630 ATOMS
Info: 3663 BONDS
Info: 6660 ANGLES
Info: 9762 DIHEDRALS
Info: 575 IMPROPERS
Info: 0 CROSSTERMS
Info: 0 EXCLUSIONS
Info: 3452 FIXED ATOMS
Info: 1842 RIGID BONDS
Info: 1720 RIGID BONDS BETWEEN FIXED ATOMS
Info: 412 DEGREES OF FREEDOM
Info: 1788 HYDROGEN GROUPS
Info: 4 ATOMS IN LARGEST HYDROGEN GROUP
Info: 1788 MIGRATION GROUPS
Info: 4 ATOMS IN LARGEST MIGRATION GROUP
Info: 1704 HYDROGEN GROUPS WITH ALL ATOMS FIXED
Info: TOTAL MASS = 25429.6 amu
Info: TOTAL CHARGE = 3 e
Info: MASS DENSITY = 0.443525 g/cm^3
Info: ATOM DENSITY = 0.0381264 atoms/A^3
Info:
Info: ADDED 19942 IMPLICIT EXCLUSIONS
Info: NONBONDED TABLE R-SQUARED SPACING: 0.0625
Info: NONBONDED TABLE SIZE: 769 POINTS
Info: REMOVING COM VELOCITY 0 0 0
TCL: Minimizing for 2500 steps
ETITLE: TS BOND ANGLE DIHED IMPRP ELECT VDW BOUNDARY MISC KINETIC TOTAL TEMP POTENTIAL TOTAL3 TEMPAVG PRESSURE GPRESSURE VOLUME PRESSAVG GPRESSAVG
ENERGY: 0 9.5004 380.9970 51.4298 0.0495 -16634.6510 1754.9198 0.0000 0.0000 0.0000 -14437.7546 0.0000 -14437.7546 -14437.7546 0.0000 3485.7897 3982.1389 95209.5993 3485.7897 3982.1389
ENERGY: 500 4.7619 45.1440 55.0046 0.9334 -16772.1418 -60.2646 0.0000 0.0000 0.0000 -16726.5624 0.0000 -16726.5624 -16726.5624 0.0000 16.5341 -0.7495 95209.5993 16.5341 -0.7495
ENERGY: 1000 4.9003 47.1659 55.7294 0.7821 -16784.7166 -58.1341 0.0000 0.0000 0.0000 -16734.2729 0.0000 -16734.2729 -16734.2729 0.0000 67.6333 47.0028 95209.5993 67.6333 47.0028
ENERGY: 1500 6.3070 50.7986 60.8564 0.7772 -16810.0995 -60.8108 0.0000 0.0000 0.0000 -16752.1710 0.0000 -16752.1710 -16752.1710 0.0000 -5.1529 -18.9207 95209.5993 -5.1529 -18.9207
ENERGY: 2000 5.2602 49.0935 61.8447 1.0456 -16857.7307 -52.8320 0.0000 0.0000 0.0000 -16793.3187 0.0000 -16793.3187 -16793.3187 0.0000 39.0914 10.3852 95209.5993 39.0914 10.3852
ENERGY: 2500 5.2374 48.8925 61.8080 0.9898 -16858.2014 -52.4093 0.0000 0.0000 0.0000 -16793.6829 0.0000 -16793.6829 -16793.6829 0.0000 35.6928 6.5071 95209.5993 35.6928 6.5071
