Info: SIMULATION PARAMETERS:
Info: TIMESTEP               2
Info: NUMBER OF STEPS        0
Info: STEPS PER CYCLE        10
Info: PERIODIC CELL BASIS 1  34.694 0 0
Info: PERIODIC CELL BASIS 2  0 56.935 0
Info: PERIODIC CELL BASIS 3  0 0 48.2
Info: PERIODIC CELL CENTER   6.666 70.569 -2.12
Info: WRAPPING WATERS AROUND PERIODIC BOUNDARIES ON OUTPUT.
Info: WRAPPING ALL CLUSTERS AROUND PERIODIC BOUNDARIES ON OUTPUT.
Info: FIRST LDB TIMESTEP     50
Info: LAST LDB TIMESTEP     -1
Info: HOM BACKGROUND SCALING 1
Info: PME BACKGROUND SCALING 1
Info: MIN ATOMS PER PATCH    40
Info: VELOCITY FILE          min_alpha6_side.vel
Info: CENTER OF MASS MOVING INITIALLY? NO
Info: DIELECTRIC             1
Info: EXCLUDE                SCALED ONE-FOUR
Info: 1-4 ELECTROSTATICS SCALED BY 1
Info: MODIFIED 1-4 VDW PARAMETERS WILL BE USED
Info: DCD FILENAME           min_alpha6.dcd
Info: DCD FREQUENCY          100
Info: DCD FIRST STEP         100
Info: DCD FILE WILL CONTAIN UNIT CELL DATA
Info: XST FILENAME           min_alpha6.xst
Info: XST FREQUENCY          100
Info: NO VELOCITY DCD OUTPUT
Info: NO FORCE DCD OUTPUT
Info: OUTPUT FILENAME        min_alpha6
Info: RESTART FILENAME       min_alpha6_res
Info: RESTART FREQUENCY      100
Info: BINARY RESTART FILES WILL BE USED
Info: SWITCHING ACTIVE
Info: SWITCHING ON           10
Info: SWITCHING OFF          12
Info: PAIRLIST DISTANCE      14
Info: PAIRLIST SHRINK RATE   0.01
Info: PAIRLIST GROW RATE     0.01
Info: PAIRLIST TRIGGER       0.3
Info: PAIRLISTS PER CYCLE    2
Info: PAIRLISTS ENABLED
Info: MARGIN                 0
Info: HYDROGEN GROUP CUTOFF  2.5
Info: PATCH DIMENSION        16.5
Info: ENERGY OUTPUT STEPS    100
Info: CROSSTERM ENERGY INCLUDED IN DIHEDRAL
Info: TIMING OUTPUT STEPS    100
Info: PRESSURE OUTPUT STEPS  100
Info: FIXED ATOMS ACTIVE
Info: PARTICLE MESH EWALD (PME) ACTIVE
Info: PME TOLERANCE               1e-006
Info: PME EWALD COEFFICIENT       0.257952
Info: PME INTERPOLATION ORDER     4
Info: PME GRID DIMENSIONS         36 60 54
Info: PME MAXIMUM GRID SPACING    1
Info: FULL ELECTROSTATIC EVALUATION FREQUENCY      2
Info: USING VERLET I (r-RESPA) MTS SCHEME.
Info: C1 SPLITTING OF LONG RANGE ELECTROSTATICS
Info: PLACING ATOMS IN PATCHES BY HYDROGEN GROUPS
Info: RIGID BONDS TO HYDROGEN : ALL
Info:         ERROR TOLERANCE : 1e-008
Info:          MAX ITERATIONS : 100
Info: RIGID WATER USING SETTLE ALGORITHM
Info: RANDOM NUMBER SEED     1522939936
Info: USE HYDROGEN BONDS?    NO
Info: COORDINATE PDB         min_alpha6_side.coor
Info: STRUCTURE FILE         A1A6.psf
Info: PARAMETER file: CHARMM format!
Info: PARAMETERS             par_all27_prot_lipid.inp
Info: USING ARITHMETIC MEAN TO COMBINE L-J SIGMA PARAMETERS
Info: SUMMARY OF PARAMETERS:
Info: 307 BONDS
Info: 769 ANGLES
Info: 1254 DIHEDRAL
Info: 81 IMPROPER
Info: 6 CROSSTERM
Info: 190 VDW
Info: 0 VDW_PAIRS
Info: 0 NBTHOLE_PAIRS
Info:
Info: STRUCTURE SUMMARY:
Info: 3630 ATOMS
Info: 3663 BONDS
Info: 6660 ANGLES
Info: 9762 DIHEDRALS
Info: 575 IMPROPERS
Info: 0 CROSSTERMS
Info: 0 EXCLUSIONS
Info: 3391 FIXED ATOMS
Info: 1842 RIGID BONDS
Info: 1720 RIGID BONDS BETWEEN FIXED ATOMS
Info: 595 DEGREES OF FREEDOM
Info: 1788 HYDROGEN GROUPS
Info: 4 ATOMS IN LARGEST HYDROGEN GROUP
Info: 1788 MIGRATION GROUPS
Info: 4 ATOMS IN LARGEST MIGRATION GROUP
Info: 1671 HYDROGEN GROUPS WITH ALL ATOMS FIXED
Info: TOTAL MASS = 25429.6 amu
Info: TOTAL CHARGE = 3 e
Info: MASS DENSITY = 0.443525 g/cm^3
Info: ATOM DENSITY = 0.0381264 atoms/A^3
Info:
Info: ADDED 19942 IMPLICIT EXCLUSIONS
Info: NONBONDED TABLE R-SQUARED SPACING: 0.0625
Info: NONBONDED TABLE SIZE: 769 POINTS
Info: REMOVING COM VELOCITY 0 0 0
TCL: Minimizing for 2500 steps
ETITLE: TS BOND ANGLE DIHED IMPRP ELECT VDW BOUNDARY MISC KINETIC TOTAL TEMP POTENTIAL TOTAL3 TEMPAVG PRESSURE GPRESSURE VOLUME PRESSAVG GPRESSAVG
ENERGY: 0 85.5985 94.7767 82.3943 2.1714 -15960.9757 -52.4375 0.0000 0.0000 0.0000 -15748.4724 0.0000 -15748.4724 -15748.4724 0.0000 90.3460 33.6512 95209.5993 90.3460 33.6512
ENERGY: 500 14.4743 62.2761 84.8201 1.8382 -16017.6594 -86.1799 0.0000 0.0000 0.0000 -15940.4306 0.0000 -15940.4306 -15940.4306 0.0000 -345.5497 -386.5526 95209.5993 -345.5497 -386.5526
ENERGY: 1000 15.1021 63.5419 83.9240 1.9794 -16039.0570 -87.2702 0.0000 0.0000 0.0000 -15961.7798 0.0000 -15961.7798 -15961.7798 0.0000 -385.3437 -426.2663 95209.5993 -385.3437 -426.2663
ENERGY: 1500 15.6241 66.9460 86.9813 2.3952 -16080.1889 -85.9838 0.0000 0.0000 0.0000 -15994.2260 0.0000 -15994.2260 -15994.2260 0.0000 -349.0552 -391.5026 95209.5993 -349.0552 -391.5026
ENERGY: 2000 15.6649 66.1487 87.0791 2.3223 -16087.3612 -89.4641 0.0000 0.0000 0.0000 -16005.6103 0.0000 -16005.6103 -16005.6103 0.0000 -399.3345 -443.3215 95209.5993 -399.3345 -443.3215
ENERGY: 2500 15.2165 65.5053 87.8767 2.4263 -16093.3819 -88.4841 0.0000 0.0000 0.0000 -16010.8411 0.0000 -16010.8411 -16010.8411 0.0000 -388.5928 -432.7846 95209.5993 -388.5928 -432.7846
