Info: SIMULATION PARAMETERS:
Info: TIMESTEP               2
Info: NUMBER OF STEPS        0
Info: STEPS PER CYCLE        10
Info: PERIODIC CELL BASIS 1  64.569 0 0
Info: PERIODIC CELL BASIS 2  0 66.869 0
Info: PERIODIC CELL BASIS 3  0 0 67.345
Info: PERIODIC CELL CENTER   6.849 103.809 31.733
Info: WRAPPING WATERS AROUND PERIODIC BOUNDARIES ON OUTPUT.
Info: WRAPPING ALL CLUSTERS AROUND PERIODIC BOUNDARIES ON OUTPUT.
Info: FIRST LDB TIMESTEP     50
Info: LAST LDB TIMESTEP     -1
Info: HOM BACKGROUND SCALING 1
Info: PME BACKGROUND SCALING 1
Info: MIN ATOMS PER PATCH    40
Info: INITIAL TEMPERATURE    0
Info: CENTER OF MASS MOVING INITIALLY? NO
Info: DIELECTRIC             1
Info: EXCLUDE                SCALED ONE-FOUR
Info: 1-4 ELECTROSTATICS SCALED BY 1
Info: MODIFIED 1-4 VDW PARAMETERS WILL BE USED
Info: DCD FILENAME           min_P.dcd
Info: DCD FREQUENCY          100
Info: DCD FIRST STEP         100
Info: DCD FILE WILL CONTAIN UNIT CELL DATA
Info: XST FILENAME           min_P.xst
Info: XST FREQUENCY          100
Info: NO VELOCITY DCD OUTPUT
Info: NO FORCE DCD OUTPUT
Info: OUTPUT FILENAME        min_P
Info: RESTART FILENAME       min_P_res
Info: RESTART FREQUENCY      100
Info: BINARY RESTART FILES WILL BE USED
Info: SWITCHING ACTIVE
Info: SWITCHING ON           10
Info: SWITCHING OFF          12
Info: PAIRLIST DISTANCE      14
Info: PAIRLIST SHRINK RATE   0.01
Info: PAIRLIST GROW RATE     0.01
Info: PAIRLIST TRIGGER       0.3
Info: PAIRLISTS PER CYCLE    2
Info: PAIRLISTS ENABLED
Info: MARGIN                 0
Info: HYDROGEN GROUP CUTOFF  2.5
Info: PATCH DIMENSION        16.5
Info: ENERGY OUTPUT STEPS    100
Info: CROSSTERM ENERGY INCLUDED IN DIHEDRAL
Info: TIMING OUTPUT STEPS    100
Info: PRESSURE OUTPUT STEPS  100
Info: FIXED ATOMS ACTIVE
Info: PARTICLE MESH EWALD (PME) ACTIVE
Info: PME TOLERANCE               1e-006
Info: PME EWALD COEFFICIENT       0.257952
Info: PME INTERPOLATION ORDER     4
Info: PME GRID DIMENSIONS         72 72 72
Info: PME MAXIMUM GRID SPACING    1
Info: FULL ELECTROSTATIC EVALUATION FREQUENCY      2
Info: USING VERLET I (r-RESPA) MTS SCHEME.
Info: C1 SPLITTING OF LONG RANGE ELECTROSTATICS
Info: PLACING ATOMS IN PATCHES BY HYDROGEN GROUPS
Info: RIGID BONDS TO HYDROGEN : ALL
Info:         ERROR TOLERANCE : 1e-008
Info:          MAX ITERATIONS : 100
Info: RIGID WATER USING SETTLE ALGORITHM
Info: RANDOM NUMBER SEED     1522947257
Info: USE HYDROGEN BONDS?    NO
Info: COORDINATE PDB         A1A6_ion.pdb
Info: STRUCTURE FILE         A1A6_ion.psf
Info: PARAMETER file: CHARMM format!
Info: PARAMETERS             par_all27_prot_lipid.inp
Info: USING ARITHMETIC MEAN TO COMBINE L-J SIGMA PARAMETERS
Info: SUMMARY OF PARAMETERS:
Info: 307 BONDS
Info: 769 ANGLES
Info: 1254 DIHEDRAL
Info: 81 IMPROPER
Info: 6 CROSSTERM
Info: 190 VDW
Info: 0 VDW_PAIRS
Info: 0 NBTHOLE_PAIRS
Info:
Info: STRUCTURE SUMMARY:
Info: 14641 ATOMS
Info: 10987 BONDS
Info: 10322 ANGLES
Info: 9762 DIHEDRALS
Info: 575 IMPROPERS
Info: 0 CROSSTERMS
Info: 0 EXCLUSIONS
Info: 3630 FIXED ATOMS
Info: 12828 RIGID BONDS
Info: 1842 RIGID BONDS BETWEEN FIXED ATOMS
Info: 22047 DEGREES OF FREEDOM
Info: 5475 HYDROGEN GROUPS
Info: 4 ATOMS IN LARGEST HYDROGEN GROUP
Info: 5475 MIGRATION GROUPS
Info: 4 ATOMS IN LARGEST MIGRATION GROUP
Info: 1788 HYDROGEN GROUPS WITH ALL ATOMS FIXED
Info: TOTAL MASS = 92151.2 amu
Info: TOTAL CHARGE = 2.88151e-006 e
Info: MASS DENSITY = 0.526267 g/cm^3
Info: ATOM DENSITY = 0.050352 atoms/A^3
Info:
Info: ADDED 30928 IMPLICIT EXCLUSIONS
Info: NONBONDED TABLE R-SQUARED SPACING: 0.0625
Info: NONBONDED TABLE SIZE: 769 POINTS
Info: REMOVING COM VELOCITY 0 0 0
TCL: Minimizing for 2500 steps
ETITLE: TS BOND ANGLE DIHED IMPRP ELECT VDW BOUNDARY MISC KINETIC TOTAL TEMP POTENTIAL TOTAL3 TEMPAVG PRESSURE GPRESSURE VOLUME PRESSAVG GPRESSAVG
ENERGY: 0 0.0000 0.0000 0.0000 0.0000 -48940.0407 146415.6572 0.0000 0.0000 0.0000 97475.6165 0.0000 97475.6165 97475.6165 0.0000 143049.4203 214060.2239 290773.1131 143049.4203 214060.2239
ENERGY: 500 0.0000 0.0000 0.0000 0.0000 -67289.3805 5550.0631 0.0000 0.0000 0.0000 -61739.3174 0.0000 -61739.3174 -61739.3174 0.0000 7708.6903 -2054.2889 290773.1131 7708.6903 -2054.2889
ENERGY: 1000 0.0000 0.0000 0.0000 0.0000 -69817.8168 6329.3333 0.0000 0.0000 0.0000 -63488.4836 0.0000 -63488.4836 -63488.4836 0.0000 9020.5889 -1184.4943 290773.1131 9020.5889 -1184.4943
ENERGY: 1500 0.0000 0.0000 0.0000 0.0000 -70591.3775 6519.2495 0.0000 0.0000 0.0000 -64072.1280 0.0000 -64072.1280 -64072.1280 0.0000 9523.7627 -793.2758 290773.1131 9523.7627 -793.2758
ENERGY: 2000 0.0000 0.0000 0.0000 0.0000 -71024.5994 6639.2168 0.0000 0.0000 0.0000 -64385.3826 0.0000 -64385.3826 -64385.3826 0.0000 9883.0025 -503.5254 290773.1131 9883.0025 -503.5254
ENERGY: 2500 0.0000 0.0000 0.0000 0.0000 -71183.2559 6640.7698 0.0000 0.0000 0.0000 -64542.4861 0.0000 -64542.4861 -64542.4861 0.0000 9946.0034 -463.6123 290773.1131 9946.0034 -463.6123
