Info: SIMULATION PARAMETERS:
Info: TIMESTEP               2
Info: NUMBER OF STEPS        0
Info: STEPS PER CYCLE        10
Info: PERIODIC CELL BASIS 1  64.569 0 0
Info: PERIODIC CELL BASIS 2  0 66.869 0
Info: PERIODIC CELL BASIS 3  0 0 67.345
Info: PERIODIC CELL CENTER   6.849 103.809 31.733
Info: WRAPPING WATERS AROUND PERIODIC BOUNDARIES ON OUTPUT.
Info: WRAPPING ALL CLUSTERS AROUND PERIODIC BOUNDARIES ON OUTPUT.
Info: FIRST LDB TIMESTEP     50
Info: LAST LDB TIMESTEP     -1
Info: HOM BACKGROUND SCALING 1
Info: PME BACKGROUND SCALING 1
Info: MIN ATOMS PER PATCH    40
Info: VELOCITY FILE          min_backbone.vel
Info: CENTER OF MASS MOVING INITIALLY? NO
Info: DIELECTRIC             1
Info: EXCLUDE                SCALED ONE-FOUR
Info: 1-4 ELECTROSTATICS SCALED BY 1
Info: MODIFIED 1-4 VDW PARAMETERS WILL BE USED
Info: DCD FILENAME           min_all.dcd
Info: DCD FREQUENCY          100
Info: DCD FIRST STEP         100
Info: DCD FILE WILL CONTAIN UNIT CELL DATA
Info: XST FILENAME           min_all.xst
Info: XST FREQUENCY          100
Info: NO VELOCITY DCD OUTPUT
Info: NO FORCE DCD OUTPUT
Info: OUTPUT FILENAME        min_all
Info: RESTART FILENAME       min_all_res
Info: RESTART FREQUENCY      1000
Info: BINARY RESTART FILES WILL BE USED
Info: SWITCHING ACTIVE
Info: SWITCHING ON           10
Info: SWITCHING OFF          12
Info: PAIRLIST DISTANCE      14
Info: PAIRLIST SHRINK RATE   0.01
Info: PAIRLIST GROW RATE     0.01
Info: PAIRLIST TRIGGER       0.3
Info: PAIRLISTS PER CYCLE    2
Info: PAIRLISTS ENABLED
Info: MARGIN                 0
Info: HYDROGEN GROUP CUTOFF  2.5
Info: PATCH DIMENSION        16.5
Info: ENERGY OUTPUT STEPS    100
Info: CROSSTERM ENERGY INCLUDED IN DIHEDRAL
Info: TIMING OUTPUT STEPS    200
Info: PRESSURE OUTPUT STEPS  100
Info: PARTICLE MESH EWALD (PME) ACTIVE
Info: PME TOLERANCE               1e-006
Info: PME EWALD COEFFICIENT       0.257952
Info: PME INTERPOLATION ORDER     4
Info: PME GRID DIMENSIONS         72 72 72
Info: PME MAXIMUM GRID SPACING    1
Info: FULL ELECTROSTATIC EVALUATION FREQUENCY      2
Info: USING VERLET I (r-RESPA) MTS SCHEME.
Info: C1 SPLITTING OF LONG RANGE ELECTROSTATICS
Info: PLACING ATOMS IN PATCHES BY HYDROGEN GROUPS
Info: RIGID BONDS TO HYDROGEN : ALL
Info:         ERROR TOLERANCE : 1e-008
Info:          MAX ITERATIONS : 100
Info: RIGID WATER USING SETTLE ALGORITHM
Info: RANDOM NUMBER SEED     1522986135
Info: USE HYDROGEN BONDS?    NO
Info: COORDINATE PDB         min_backbone.coor
Info: STRUCTURE FILE         A1A6_ion.psf
Info: PARAMETER file: CHARMM format!
Info: PARAMETERS             par_all27_prot_lipid.inp
Info: USING ARITHMETIC MEAN TO COMBINE L-J SIGMA PARAMETERS
Info: SUMMARY OF PARAMETERS:
Info: 307 BONDS
Info: 769 ANGLES
Info: 1254 DIHEDRAL
Info: 81 IMPROPER
Info: 6 CROSSTERM
Info: 190 VDW
Info: 0 VDW_PAIRS
Info: 0 NBTHOLE_PAIRS
Info:
Info: STRUCTURE SUMMARY:
Info: 14641 ATOMS
Info: 10987 BONDS
Info: 10322 ANGLES
Info: 9762 DIHEDRALS
Info: 575 IMPROPERS
Info: 0 CROSSTERMS
Info: 0 EXCLUSIONS
Info: 12828 RIGID BONDS
Info: 31092 DEGREES OF FREEDOM
Info: 5475 HYDROGEN GROUPS
Info: 4 ATOMS IN LARGEST HYDROGEN GROUP
Info: 5475 MIGRATION GROUPS
Info: 4 ATOMS IN LARGEST MIGRATION GROUP
Info: TOTAL MASS = 92151.2 amu
Info: TOTAL CHARGE = 2.88151e-006 e
Info: MASS DENSITY = 0.526267 g/cm^3
Info: ATOM DENSITY = 0.050352 atoms/A^3
Info:
Info: ADDED 30928 IMPLICIT EXCLUSIONS
Info: NONBONDED TABLE R-SQUARED SPACING: 0.0625
Info: NONBONDED TABLE SIZE: 769 POINTS
Info: REMOVING COM VELOCITY 0 0 0
TCL: Minimizing for 1500 steps
ETITLE: TS BOND ANGLE DIHED IMPRP ELECT VDW BOUNDARY MISC KINETIC TOTAL TEMP POTENTIAL TOTAL3 TEMPAVG PRESSURE GPRESSURE VOLUME PRESSAVG GPRESSAVG
ENERGY: 0 344.2753 709.7424 1023.8924 23.5746 -62159.2516 5877.8147 0.0000 0.0000 0.0000 -54179.9521 0.0000 -54179.9521 -54179.9521 0.0000 10854.1475 -10595.6048 290773.1131 10854.1475 -10595.6048
ENERGY: 300 170.9872 637.5126 1005.7994 23.1520 -62337.9521 5767.3917 0.0000 0.0000 0.0000 -54733.1091 0.0000 -54733.1091 -54733.1091 0.0000 10593.7944 -163.6451 290773.1131 10593.7944 -163.6451
ENERGY: 600 180.4370 646.9103 1008.5397 23.3451 -62384.9805 5731.3852 0.0000 0.0000 0.0000 -54794.3632 0.0000 -54794.3632 -54794.3632 0.0000 10488.4348 -275.6185 290773.1131 10488.4348 -275.6185
ENERGY: 900 175.9198 643.2962 1005.9709 23.1467 -62391.3899 5726.0466 0.0000 0.0000 0.0000 -54817.0097 0.0000 -54817.0097 -54817.0097 0.0000 10472.5333 -294.1443 290773.1131 10472.5333 -294.1443
ENERGY: 1200 177.6751 643.6507 1006.4631 22.9807 -62394.1075 5711.7670 0.0000 0.0000 0.0000 -54831.5709 0.0000 -54831.5709 -54831.5709 0.0000 10438.7628 -329.8398 290773.1131 10438.7628 -329.8398
ENERGY: 1500 177.3021 643.4311 1003.3478 22.8245 -62398.4797 5706.9961 0.0000 0.0000 0.0000 -54844.5781 0.0000 -54844.5781 -54844.5781 0.0000 10431.0846 -339.8254 290773.1131 10431.0846 -339.8254
